[Format]      =  4.0
[Frequency]   =  0
[Precision]   =  1e-008
[MinAngle]    =  30
[DoSmartMesh] =  1
[Depth]       =  1
[LengthUnits] =  millimeters
[ProblemType] =  planar
[Coordinates] =  polar
[ACSolver]    =  0
[PrevType]    =  0
[PrevSoln]    =  ""
[Comment]     =  "Add comments here."
[PointProps]   = 0
[BdryProps]   = 0
[BlockProps]  = 0
[CircuitProps]  = 0
[NumPoints] = 58
60.464714281422722	59.741260703917533	0	1
67.578210315943153	66.769644550016906	0	1
-59.741260703917533	60.464714281422722	0	1
-66.769644550016906	67.578210315943153	0	1
-60.464714281422722	-59.741260703917533	0	1
-67.578210315943153	-66.769644550016906	0	1
59.741260703917533	-60.464714281422722	0	1
66.769644550016906	-67.578210315943153	0	1
101.422212	-27.175999999999998	0	0
92.387952999999996	-38.268343000000002	0	0
92.387952999999996	38.268343000000002	0	0
101.422212	27.175999999999998	0	0
74.246212	74.246212	0	0
79.335334000000003	60.876142999999999	0	0
13.052619	99.144486000000001	0	0
27.175999999999998	101.422212	0	0
-27.175999999999998	101.422212	0	0
-13.052619	99.144486000000001	0	0
-79.335334000000003	60.876142999999999	0	0
-74.246212	74.246212	0	0
-101.422212	27.175999999999998	0	0
-92.387952999999996	38.268343000000002	0	0
-92.387952999999996	-38.268343000000002	0	0
-101.422212	-27.175999999999998	0	0
-74.246212	-74.246212	0	0
-79.335334000000003	-60.876142999999999	0	0
-13.052619	-99.144486000000001	0	0
-27.175999999999998	-101.422212	0	0
27.175999999999998	-101.422212	0	0
13.052619	-99.144486000000001	0	0
79.335334000000003	-60.876142999999999	0	0
74.246212	-74.246212	0	0
137.427806	-26.713259000000001	0	0
137.427806	26.713259000000001	0	0
45.579541999999996	132.372601	0	0
91.848264	105.659341	0	0
-91.848264	105.659341	0	0
-45.579541999999996	132.372601	0	0
-137.427806	-26.713259000000001	0	0
-137.427806	26.713259000000001	0	0
-45.579541999999996	-132.372601	0	0
-91.848264	-105.659341	0	0
91.848264	-105.659341	0	0
45.579541999999996	-132.372601	0	0
121.243557	70	0	0
90.932666999999995	52.5	0	0
-0	140	0	0
0	105	0	0
-121.243557	70	0	0
-90.932666999999995	52.5	0	0
-121.243557	-70	0	0
-90.932666999999995	-52.5	0	0
0	-140	0	0
-0	-105	0	0
121.243557	-70	0	0
90.932666999999995	-52.5	0	0
175	-4.2862637970157365e-014	0	0
-175	6.4293956955236041e-014	0	0
[NumSegments] = 34
0	1	-1	0	0	1
2	3	-1	0	0	1
4	5	-1	0	0	1
6	7	-1	0	0	1
8	9	-1	0	0	0
10	11	-1	0	0	0
12	13	-1	0	0	0
14	15	-1	0	0	0
16	17	-1	0	0	0
18	19	-1	0	0	0
20	21	-1	0	0	0
22	23	-1	0	0	0
24	25	-1	0	0	0
26	27	-1	0	0	0
28	29	-1	0	0	0
30	31	-1	0	0	0
8	32	-1	0	0	0
11	33	-1	0	0	0
15	34	-1	0	0	0
12	35	-1	0	0	0
19	36	-1	0	0	0
16	37	-1	0	0	0
23	38	-1	0	0	0
20	39	-1	0	0	0
27	40	-1	0	0	0
24	41	-1	0	0	0
31	42	-1	0	0	0
28	43	-1	0	0	0
44	45	-1	0	0	0
46	47	-1	0	0	0
48	49	-1	0	0	0
50	51	-1	0	0	0
52	53	-1	0	0	0
54	55	-1	0	0	0
[NumArcSegments] = 40
0	2	90	5	0	0	1	5
2	4	90	5	0	0	1	5
4	6	90	5	0	0	1	5
6	0	90	5	0	0	1	5
1	3	90	5	0	0	1	5
3	5	90	5	0	0	1	5
5	7	90	5	0	0	1	5
7	1	90	5	0	0	1	5
9	10	45	5	0	0	0	5
13	14	45	5	0	0	0	5
17	18	45	5	0	0	0	5
21	22	45	5	0	0	0	5
25	26	45	5	0	0	0	5
29	30	45	5	0	0	0	5
11	45	15	5	0	0	0	5
45	12	15	5	0	0	0	5
15	47	15	5	0	0	0	5
47	16	15	5	0	0	0	5
19	49	15	5	0	0	0	5
49	20	15	5	0	0	0	5
23	51	15	5	0	0	0	5
51	24	15	5	0	0	0	5
27	53	15	5	0	0	0	5
53	28	15	5	0	0	0	5
31	55	15	5	0	0	0	5
55	8	15	5	0	0	0	5
33	44	19	5	0	0	0	5
44	35	19	5	0	0	0	5
34	46	19	5	0	0	0	5
46	37	19	5	0	0	0	5
36	48	19	5	0	0	0	5
48	39	19	5	0	0	0	5
38	50	19	5	0	0	0	5
50	41	19	5	0	0	0	5
40	52	19	5	0	0	0	5
52	43	19	5	0	0	0	5
42	54	19	5	0	0	0	5
54	32	19	5	0	0	0	5
56	57	180	5	0	0	0	5
57	56	180	5	0	0	0	5
[NumHoles] = 0
[NumBlockLabels] = 0
