[Format]      =  4.0
[Frequency]   =  0
[Precision]   =  1e-008
[MinAngle]    =  30
[DoSmartMesh] =  1
[Depth]       =  1
[LengthUnits] =  millimeters
[ProblemType] =  planar
[Coordinates] =  cartesian
[ACSolver]    =  0
[PrevType]    =  0
[PrevSoln]    =  ""
[Comment]     =  "Add comments here."
[PointProps]   = 0
[BdryProps]   = 1
  <BeginBdry>
    <BdryName> = "A=0"
    <BdryType> = 0
    <A_0> = 0
    <A_1> = 0
    <A_2> = 0
    <Phi> = 0
    <c0> = 0
    <c0i> = 0
    <c1> = 0
    <c1i> = 0
    <Mu_ssd> = 0
    <Sigma_ssd> = 0
    <innerangle> = 0
    <outerangle> = 0
  <EndBdry>
[BlockProps]  = 11
  <BeginBlock>
    <BlockName> = "ECE713_M19"
    <Mu_x> = 1
    <Mu_y> = 1
    <H_c> = 0
    <H_cAngle> = 0
    <J_re> = 0
    <J_im> = 0
    <Sigma> = 0
    <d_lam> = 0.35999999999999999
    <Phi_h> = 0
    <Phi_hx> = 0
    <Phi_hy> = 0
    <LamType> = 0
    <LamFill> = 0.91000000000000003
    <NStrands> = 0
    <WireD> = 0
    <BHPoints> = 187
      0	0
      0.51870000000000005	49
      0.66139999999999999	63
      0.72040000000000004	69
      0.76580000000000004	74
      0.80400000000000005	78
      0.83760000000000001	82
      0.86809999999999998	86
      0.89610000000000001	90
      0.92210000000000003	94
      0.9466	98
      0.96970000000000001	102
      0.99170000000000003	106
      1.0127999999999999	110
      1.0328999999999999	114
      1.0524	119
      1.0710999999999999	124
      1.0891999999999999	128
      1.1068	134
      1.1237999999999999	139
      1.1404000000000001	145
      1.1565000000000001	151
      1.1722999999999999	157
      1.1877	164
      1.2027000000000001	172
      1.2174	180
      1.2318	189
      1.2459	199
      1.2598	209
      1.2734000000000001	221
      1.2867	234
      1.2999000000000001	248
      1.3128	264
      1.3254999999999999	282
      1.3380000000000001	302
      1.3503000000000001	324
      1.3625	349
      1.3744000000000001	377
      1.3862000000000001	409
      1.3978999999999999	446
      1.4094	486
      1.4207000000000001	532
      1.4319	584
      1.4430000000000001	641
      1.4539	705
      1.4646999999999999	776
      1.4754	855
      1.486	942
      1.4964999999999999	1037
      1.5067999999999999	1141
      1.5169999999999999	1256
      1.5271999999999999	1380
      1.5371999999999999	1515
      1.5471999999999999	1661
      1.5569999999999999	1818
      1.5667	1987
      1.5764	2167
      1.5860000000000001	2357
      1.5954999999999999	2558
      1.6049	2769
      1.6142000000000001	2990
      1.6234	3220
      1.6326000000000001	3459
      1.6416999999999999	3706
      1.6507000000000001	3961
      1.6597	4224
      1.6685000000000001	4495
      1.6773	4773
      1.6860999999999999	5058
      1.6948000000000001	5352
      1.7034	5653
      1.7119	5962
      1.7203999999999999	6280
      1.7289000000000001	6606
      1.7372000000000001	6942
      1.7456	7286
      1.7538	7641
      1.762	8007
      1.7702	8384
      1.7783	8773
      1.7863	9175
      1.7943	9590
      1.8023	10020
      1.8102	10466
      1.8180000000000001	10929
      1.8258000000000001	11409
      1.8335999999999999	11909
      1.8412999999999999	12430
      1.849	12972
      1.8566	13539
      1.8642000000000001	14132
      1.8716999999999999	14752
      1.8792	15402
      1.8867	16085
      1.8940999999999999	16802
      1.9014	17557
      1.9088000000000001	18353
      1.9160999999999999	19192
      1.9233	20078
      1.9306000000000001	21016
      1.9377	22008
      1.9449000000000001	23059
      1.952	24174
      1.9591000000000001	25357
      1.9661	26614
      1.9731000000000001	27948
      1.9801	29367
      1.9870000000000001	30873
      1.994	32474
      2.0007999999999999	34174
      2.0076999999999998	35978
      2.0145	37891
      2.0213000000000001	39915
      2.028	42056
      2.0348000000000002	44315
      2.0413999999999999	46694
      2.0480999999999998	49194
      2.0547	51814
      2.0613999999999999	54555
      2.0678999999999998	57412
      2.0745	60385
      2.081	63468
      2.0874999999999999	66657
      2.0939999999999999	69947
      2.1004	73333
      2.1067999999999998	76809
      2.1132	80369
      2.1196000000000002	84007
      2.1259000000000001	87716
      2.1322000000000001	91492
      2.1385000000000001	95328
      2.1448	99220
      2.1509999999999998	103162
      2.1573000000000002	107149
      2.1634000000000002	111177
      2.1696	115242
      2.1758000000000002	119339
      2.1819000000000002	123466
      2.1880000000000002	127619
      2.1941000000000002	131794
      2.2000999999999999	135990
      2.2061999999999999	140203
      2.2122000000000002	144432
      2.2181999999999999	148673
      2.2242000000000002	152926
      2.2301000000000002	157188
      2.2360000000000002	161458
      2.242	165734
      2.2477999999999998	170015
      2.2536999999999998	174300
      2.2595999999999998	178587
      2.2654000000000001	182876
      2.2711999999999999	187166
      2.2770000000000001	191455
      2.2827999999999999	195743
      2.2885	200030
      2.2942999999999998	204314
      2.2999999999999998	208595
      2.3056999999999999	212872
      2.3113999999999999	217146
      2.3170000000000002	221415
      2.3227000000000002	225679
      2.3283	229938
      2.3338999999999999	234191
      2.3395000000000001	238438
      2.3451	242679
      2.3506999999999998	246914
      2.3561999999999999	251142
      2.3616999999999999	255362
      2.3672	259576
      2.3727	263783
      2.3782000000000001	267982
      2.3837000000000002	272173
      2.3891	276357
      2.3944999999999999	280533
      2.3999999999999999	284701
      2.4053	288860
      2.4106999999999998	293012
      2.4161000000000001	297155
      2.4215	301290
      2.4268000000000001	305417
      2.4321000000000002	309536
      2.4373999999999998	313646
      2.4426999999999999	317747
      2.448	321840
      2.4533	325924
      2.4584999999999999	330000
  <EndBlock>
  <BeginBlock>
    <BlockName> = "18 AWG"
    <Mu_x> = 1
    <Mu_y> = 1
    <H_c> = 0
    <H_cAngle> = 0
    <J_re> = 0
    <J_im> = 0
    <Sigma> = 58
    <d_lam> = 0
    <Phi_h> = 0
    <Phi_hx> = 0
    <Phi_hy> = 0
    <LamType> = 3
    <LamFill> = 1
    <NStrands> = 1
    <WireD> = 1.0239652968433499
    <BHPoints> = 0
  <EndBlock>
  <BeginBlock>
    <BlockName> = "Recoma_33E"
    <Mu_x> = 1.0669999999999999
    <Mu_y> = 1.0669999999999999
    <H_c> = 865000
    <H_cAngle> = 0
    <J_re> = 0
    <J_im> = 0
    <Sigma> = 0
    <d_lam> = 0
    <Phi_h> = 0
    <Phi_hx> = 0
    <Phi_hy> = 0
    <LamType> = 0
    <LamFill> = 1
    <NStrands> = 0
    <WireD> = 0
    <BHPoints> = 0
  <EndBlock>
  <BeginBlock>
    <BlockName> = "Air"
    <Mu_x> = 1
    <Mu_y> = 1
    <H_c> = 0
    <H_cAngle> = 0
    <J_re> = 0
    <J_im> = 0
    <Sigma> = 0
    <d_lam> = 0
    <Phi_h> = 0
    <Phi_hx> = 0
    <Phi_hy> = 0
    <LamType> = 0
    <LamFill> = 1
    <NStrands> = 0
    <WireD> = 0
    <BHPoints> = 0
  <EndBlock>
  <BeginBlock>
    <BlockName> = "u1"
    <Mu_x> = 2.6498996896116669
    <Mu_y> = 2.6498996896116669
    <H_c> = 0
    <H_cAngle> = 0
    <J_re> = 0
    <J_im> = 0
    <Sigma> = 0
    <d_lam> = 0
    <Phi_h> = 0
    <Phi_hx> = 0
    <Phi_hy> = 0
    <LamType> = 0
    <LamFill> = 1
    <NStrands> = 0
    <WireD> = 0
    <BHPoints> = 0
  <EndBlock>
  <BeginBlock>
    <BlockName> = "u2"
    <Mu_x> = 0.12953316809300527
    <Mu_y> = 0.12953316809300527
    <H_c> = 0
    <H_cAngle> = 0
    <J_re> = 0
    <J_im> = 0
    <Sigma> = 0
    <d_lam> = 0
    <Phi_h> = 0
    <Phi_hx> = 0
    <Phi_hy> = 0
    <LamType> = 0
    <LamFill> = 1
    <NStrands> = 0
    <WireD> = 0
    <BHPoints> = 0
  <EndBlock>
  <BeginBlock>
    <BlockName> = "u3"
    <Mu_x> = 14.398967120915913
    <Mu_y> = 14.398967120915913
    <H_c> = 0
    <H_cAngle> = 0
    <J_re> = 0
    <J_im> = 0
    <Sigma> = 0
    <d_lam> = 0
    <Phi_h> = 0
    <Phi_hx> = 0
    <Phi_hy> = 0
    <LamType> = 0
    <LamFill> = 1
    <NStrands> = 0
    <WireD> = 0
    <BHPoints> = 0
  <EndBlock>
  <BeginBlock>
    <BlockName> = "u4"
    <Mu_x> = 0.042882574356338271
    <Mu_y> = 0.042882574356338271
    <H_c> = 0
    <H_cAngle> = 0
    <J_re> = 0
    <J_im> = 0
    <Sigma> = 0
    <d_lam> = 0
    <Phi_h> = 0
    <Phi_hx> = 0
    <Phi_hy> = 0
    <LamType> = 0
    <LamFill> = 1
    <NStrands> = 0
    <WireD> = 0
    <BHPoints> = 0
  <EndBlock>
  <BeginBlock>
    <BlockName> = "u5"
    <Mu_x> = 37.197476986533054
    <Mu_y> = 37.197476986533054
    <H_c> = 0
    <H_cAngle> = 0
    <J_re> = 0
    <J_im> = 0
    <Sigma> = 0
    <d_lam> = 0
    <Phi_h> = 0
    <Phi_hx> = 0
    <Phi_hy> = 0
    <LamType> = 0
    <LamFill> = 1
    <NStrands> = 0
    <WireD> = 0
    <BHPoints> = 0
  <EndBlock>
  <BeginBlock>
    <BlockName> = "u6"
    <Mu_x> = 0.015664246064106369
    <Mu_y> = 0.015664246064106369
    <H_c> = 0
    <H_cAngle> = 0
    <J_re> = 0
    <J_im> = 0
    <Sigma> = 0
    <d_lam> = 0
    <Phi_h> = 0
    <Phi_hx> = 0
    <Phi_hy> = 0
    <LamType> = 0
    <LamFill> = 1
    <NStrands> = 0
    <WireD> = 0
    <BHPoints> = 0
  <EndBlock>
  <BeginBlock>
    <BlockName> = "u7"
    <Mu_x> = 142.03015659052124
    <Mu_y> = 142.03015659052124
    <H_c> = 0
    <H_cAngle> = 0
    <J_re> = 0
    <J_im> = 0
    <Sigma> = 0
    <d_lam> = 0
    <Phi_h> = 0
    <Phi_hx> = 0
    <Phi_hy> = 0
    <LamType> = 0
    <LamFill> = 1
    <NStrands> = 0
    <WireD> = 0
    <BHPoints> = 0
  <EndBlock>
[CircuitProps]  = 3
  <BeginCircuit>
    <CircuitName> = "Phase_u"
    <TotalAmps_re> = 10
    <TotalAmps_im> = 0
    <CircuitType> = 1
  <EndCircuit>
  <BeginCircuit>
    <CircuitName> = "Phase_v"
    <TotalAmps_re> = -5
    <TotalAmps_im> = 0
    <CircuitType> = 1
  <EndCircuit>
  <BeginCircuit>
    <CircuitName> = "Phase_w"
    <TotalAmps_re> = -5
    <TotalAmps_im> = 0
    <CircuitType> = 1
  <EndCircuit>
[NumPoints] = 57
-13.680806	37.587705	0	0
-13.680806	42.587705	0	0
-6.5	49.575699999999998	0	0
-6.5	64.674182999999999	0	0
6.5	64.674182999999999	0	0
6.5	49.575699999999998	0	0
13.680806	42.587705	0	0
13.680806	37.587705	0	0
-25.711504000000001	-30.641777999999999	0	0
-30.041630999999999	-33.141778000000002	0	0
-39.683815000000003	-30.417014999999999	0	0
-52.759486000000003	-37.966256999999999	0	0
-59.259486000000003	-26.707927000000002	0	0
-46.183815000000003	-19.158684999999998	0	0
-43.722436999999999	-9.4459269999999993	0	0
-39.392310000000002	-6.9459270000000002	0	0
39.392310000000002	-6.9459270000000002	0	0
43.722436999999999	-9.4459269999999993	0	0
46.183815000000003	-19.158684999999998	0	0
59.259486000000003	-26.707927000000002	0	0
52.759486000000003	-37.966256999999999	0	0
39.683815000000003	-30.417014999999999	0	0
30.041630999999999	-33.141778000000002	0	0
25.711504000000001	-30.641777999999999	0	0
1.83697019872103e-015	30	0	1
2.1431318985078682e-015	35	0	1
-34.641016	20	0	0
-56.291651000000002	32.5	0	0
-0	-65	0	0
-0	-40	0	0
-1.83697019872103e-015	-30	0	1
-2.1431318985078682e-015	-35	0	1
34.641016	20	0	0
56.291651000000002	32.5	0	0
69.282032302755098	39.999999999999993	0	0
-69.282032302755098	39.999999999999993	0	0
-1.4695761589768237e-014	-80	0	0
-39.999999999999993	3.0186828388714785e-007	0	0
40	0	0	0
-34.641016500443392	-19.999999395400213	0	0
34.64101628535213	-19.999999500000019	0	0
6.3948799999999997e-014	169.7059999999999	0	0
6.3948799999999997e-014	-169.70600000000007	0	0
6.3948799999999997e-014	-172.13037142857149	0	0
6.3948799999999997e-014	172.13037142857132	0	0
6.3948799999999997e-014	-174.55474285714291	0	0
6.3948799999999997e-014	174.55474285714274	0	0
6.3948799999999997e-014	-176.97911428571436	0	0
6.3948799999999997e-014	176.97911428571419	0	0
6.3948799999999997e-014	-179.40348571428578	0	0
6.3948799999999997e-014	179.40348571428561	0	0
6.3948799999999997e-014	-181.8278571428572	0	0
6.3948799999999997e-014	181.82785714285703	0	0
6.3948799999999997e-014	-184.25222857142862	0	0
6.3948799999999997e-014	184.25222857142845	0	0
6.3948799999999997e-014	-186.67660000000009	0	0
6.3948799999999997e-014	186.67659999999992	0	0
[NumSegments] = 23
0	1	-1	0	0	0
1	2	-1	0	0	0
2	3	-1	0	0	0
4	5	-1	0	0	0
5	6	-1	0	0	0
6	7	-1	0	0	0
8	9	-1	0	0	0
9	10	-1	0	0	0
10	11	-1	0	0	0
12	13	-1	0	0	0
13	14	-1	0	0	0
14	15	-1	0	0	0
16	17	-1	0	0	0
17	18	-1	0	0	0
18	19	-1	0	0	0
20	21	-1	0	0	0
21	22	-1	0	0	0
22	23	-1	0	0	0
24	25	-1	0	0	1
26	27	-1	0	0	0
28	29	-1	0	0	0
30	31	-1	0	0	1
32	33	-1	0	0	0
[NumArcSegments] = 42
7	0	40	5	0	0	0	5
3	27	54.260829999999999	5	0	0	0	5
34	35	120	5	0	0	0	5
33	4	54.260829999999999	5	0	0	0	5
11	28	54.260829000000001	5	0	0	0	5
35	36	120	5	0	0	0	5
27	12	54.260829999999999	5	0	0	0	5
19	33	54.260829999999999	5	0	0	0	5
36	34	120	5	0	0	0	5
28	20	54.260829000000001	5	0	0	0	5
37	15	10	5	0	0	0	5
38	32	30	5	0	0	0	5
25	31	180	5	0	0	1	5
24	30	180	5	0	0	1	5
31	25	180	5	0	0	1	5
30	24	180	5	0	0	1	5
32	7	39.999999000000003	5	0	0	0	5
0	26	39.999999000000003	5	0	0	0	5
26	37	30	5	0	0	0	5
15	39	20	5	0	0	0	5
39	8	20	5	0	0	0	5
8	29	39.999999000000003	5	0	0	0	5
29	23	39.999999000000003	5	0	0	0	5
23	40	20.000000999999997	5	0	0	0	5
40	16	20.000000999999997	5	0	0	0	5
16	38	10	5	0	0	0	5
41	42	180	1	0	0	0	1
42	41	180	1	0	0	0	1
43	44	180	1	0	0	0	1
44	43	180	1	0	0	0	1
45	46	180	1	0	0	0	1
46	45	180	1	0	0	0	1
47	48	180	1	0	0	0	1
48	47	180	1	0	0	0	1
49	50	180	1	0	0	0	1
50	49	180	1	0	0	0	1
51	52	180	1	0	0	0	1
52	51	180	1	0	0	0	1
53	54	180	1	0	0	0	1
54	53	180	1	0	0	0	1
55	56	180	1	1	0	0	1
56	55	180	1	1	0	0	1
[NumHoles] = 0
[NumBlockLabels] = 19
1	72	1	-1	0	0	0	1	0
1	-6.123233995736766e-017	1	-1	0	0	1	1	0
32.399999999999999	39.399999999999999	2	-1	1	0	0	20	0
-30.699999999999999	42.600000000000001	2	-1	1	0	0	-20	0
-52.5	3.8999999999999999	2	-1	2	0	0	20	0
-23.899999999999999	-48.600000000000001	2	-1	2	0	0	-20	0
23.399999999999999	-46.399999999999999	2	-1	3	0	0	20	0
52.799999999999997	2	2	-1	3	0	0	-20	0
-28.199999999999999	24.600000000000001	4	-1	0	0	0	1	0
-32.100000000000001	-0.49999999999999806	3	-1	0	180	1	1	0
31.800000000000001	0.19999999999999807	3	-1	0	180	1	1	0
73	55.700000000000003	4	-1	0	0	0	1	0
167.63404070179718	33.344483889412331	5	-1	0	0	0	1	0
160.14764065745391	66.335324742370204	6	-1	0	0	0	1	0
146.14485995489494	97.650873463568274	7	-1	0	0	0	1	0
126.0002765784465	126.00027657844635	8	-1	0	0	0	1	0
100.34469066256339	150.17644229847807	9	-1	0	0	0	1	0
70.046391860824613	169.10694922570292	10	-1	0	0	0	1	0
36.182312305532655	181.9007675700351	11	-1	0	0	0	1	0
